Version 4
SHEET 1 880 680
WIRE -144 -96 -224 -96
WIRE 64 -96 0 -96
WIRE 512 -96 208 -96
WIRE -224 -32 -224 -96
WIRE 512 -32 512 -96
WIRE 64 -16 64 -96
WIRE 208 64 208 -96
WIRE -224 80 -224 48
WIRE 512 80 512 48
WIRE -144 176 -144 -96
WIRE -112 176 -144 176
WIRE 0 176 0 -96
WIRE 0 176 -32 176
WIRE 64 176 64 64
WIRE 208 176 208 128
WIRE 208 176 64 176
WIRE 416 176 208 176
WIRE 208 208 208 176
WIRE 0 224 0 176
WIRE 208 320 208 272
WIRE 0 336 0 304
FLAG 208 320 0
FLAG 0 336 0
FLAG 512 80 0
FLAG -224 80 0
SYMBOL res -16 160 R90
WINDOW 0 0 56 VBottom 2
WINDOW 3 32 56 VTop 2
SYMATTR InstName R1
SYMATTR Value 8k
SYMBOL res -16 208 R0
SYMATTR InstName R2
SYMATTR Value 8k
SYMBOL voltage 512 -48 R0
WINDOW 123 0 0 Left 2
WINDOW 39 24 124 Left 2
SYMATTR SpiceLine Rser=1k
SYMATTR InstName V1
SYMATTR Value 5.0
SYMBOL voltage -224 -48 R0
WINDOW 123 0 0 Left 2
WINDOW 39 24 124 Left 2
SYMATTR SpiceLine Rser=0
SYMATTR InstName V2
SYMATTR Value 40
SYMBOL res 48 -32 R0
SYMATTR InstName R5
SYMATTR Value 10k
SYMBOL schottky 224 128 R180
WINDOW 0 24 64 Left 2
WINDOW 3 24 0 Left 2
SYMATTR InstName D3
SYMATTR Value MBRS1100
SYMBOL schottky 224 272 R180
WINDOW 0 24 64 Left 2
WINDOW 3 24 0 Left 2
SYMATTR InstName D1
SYMATTR Value MBRS1100
TEXT -256 360 Left 2 !.tran 1
