Version 4
SHEET 1 880 680
WIRE -144 -96 -224 -96
WIRE 512 -96 192 -96
WIRE -224 -32 -224 -96
WIRE 512 -32 512 -96
WIRE 224 48 112 48
WIRE 352 48 304 48
WIRE -224 80 -224 48
WIRE 512 80 512 48
WIRE 192 112 192 -96
WIRE 112 128 112 48
WIRE 160 128 112 128
WIRE 352 144 352 48
WIRE 352 144 224 144
WIRE 416 144 352 144
WIRE 560 144 496 144
WIRE 672 144 560 144
WIRE 128 160 96 160
WIRE 160 160 128 160
WIRE -144 176 -144 -96
WIRE -112 176 -144 176
WIRE 0 176 -32 176
WIRE 96 176 96 160
WIRE 96 176 0 176
WIRE 560 176 560 144
WIRE 128 208 128 160
WIRE 0 224 0 176
WIRE 192 256 192 176
WIRE 128 288 128 272
WIRE 560 288 560 256
WIRE 0 336 0 304
FLAG 0 336 0
FLAG 512 80 0
FLAG -224 80 0
FLAG 192 256 0
FLAG 560 288 0
FLAG 128 288 0
SYMBOL res -16 160 R90
WINDOW 0 0 56 VBottom 2
WINDOW 3 32 56 VTop 2
SYMATTR InstName R1
SYMATTR Value 9.76k
SYMBOL res -16 208 R0
SYMATTR InstName R2
SYMATTR Value 5.49k
SYMBOL voltage 512 -48 R0
WINDOW 123 0 0 Left 2
WINDOW 39 24 124 Left 2
SYMATTR SpiceLine Rser=0
SYMATTR InstName V1
SYMATTR Value 5
SYMBOL voltage -224 -48 R0
WINDOW 123 24 152 Left 2
WINDOW 39 24 180 Left 2
SYMATTR Value2 AC 3
SYMATTR InstName V2
SYMATTR Value ""
SYMBOL Opamps\\OPA170 192 80 R0
SYMATTR InstName U1
SYMATTR Value OPA170
SYMBOL res 320 32 R90
WINDOW 0 0 56 VBottom 2
WINDOW 3 32 56 VTop 2
SYMATTR InstName R3
SYMATTR Value 49.9
SYMBOL res 512 128 R90
WINDOW 0 0 56 VBottom 2
WINDOW 3 32 56 VTop 2
SYMATTR InstName R4
SYMATTR Value 499
SYMBOL res 576 272 R180
WINDOW 0 36 76 Left 2
WINDOW 3 36 40 Left 2
SYMATTR InstName R5
SYMATTR Value 499
SYMBOL cap 112 208 R0
SYMATTR InstName C1
SYMATTR Value 0.022µ
SYMATTR SpiceLine V=50 Irms=459m Rser=0.256209 Lser=0 mfg="KEMET" pn="C0805C223K5RAC" type="X7R"
TEXT -552 120 Left 2 !;tran 1
TEXT 240 224 Left 2 !.lib OPA170.sub
TEXT -552 72 Left 2 !.ac dec 20 150k 80000k
