Version 4
SHEET 1 880 680
WIRE 704 64 176 64
WIRE 64 96 48 96
WIRE 272 96 144 96
WIRE 704 96 704 64
WIRE 176 144 176 64
WIRE 48 160 48 96
WIRE 144 160 48 160
WIRE 272 176 272 96
WIRE 272 176 208 176
WIRE 304 176 272 176
WIRE 416 176 384 176
WIRE 624 176 416 176
WIRE 144 192 -128 192
WIRE 416 208 416 176
WIRE 48 224 48 160
WIRE 176 224 176 208
WIRE -128 304 -128 272
WIRE 416 304 416 272
WIRE 48 320 48 304
FLAG 176 224 0
FLAG 704 176 0
FLAG 48 320 0
FLAG -128 304 0
FLAG 416 304 0
SYMBOL Opamps\\OPA170 176 112 R0
SYMATTR InstName U1
SYMBOL voltage 704 80 R0
WINDOW 123 0 0 Left 2
WINDOW 39 0 0 Left 2
SYMATTR InstName V1
SYMATTR Value 12
SYMBOL res 160 80 R90
WINDOW 0 0 56 VBottom 2
WINDOW 3 32 56 VTop 2
SYMATTR InstName R1
SYMATTR Value 3k
SYMBOL res 32 208 R0
SYMATTR InstName R2
SYMATTR Value 1k
SYMBOL voltage -128 176 R0
WINDOW 123 24 124 Left 2
WINDOW 39 0 0 Left 2
SYMATTR InstName V2
SYMATTR Value 2.5
SYMBOL res 400 160 R90
WINDOW 0 0 56 VBottom 2
WINDOW 3 32 56 VTop 2
SYMATTR InstName R3
SYMATTR Value 1k
SYMBOL cap 400 208 R0
SYMATTR InstName C1
SYMATTR Value 0.082µ
TEXT -162 344 Left 2 !.tran 0 10 0.1 0.2
