Version 4
SHEET 1 880 680
WIRE -144 -96 -224 -96
WIRE 512 -96 256 -96
WIRE -224 -32 -224 -96
WIRE 512 -32 512 -96
WIRE -224 80 -224 48
WIRE 512 80 512 48
WIRE 432 96 96 96
WIRE 256 128 256 -96
WIRE 96 144 96 96
WIRE 224 144 96 144
WIRE 256 144 256 128
WIRE 432 160 432 96
WIRE 432 160 288 160
WIRE 496 160 432 160
WIRE -144 176 -144 -96
WIRE -112 176 -144 176
WIRE 0 176 -32 176
WIRE 224 176 0 176
WIRE 0 224 0 176
WIRE 256 256 256 192
WIRE 0 336 0 304
FLAG 0 336 0
FLAG 512 80 0
FLAG -224 80 0
FLAG 256 256 0
SYMBOL res -16 160 R90
WINDOW 0 0 56 VBottom 2
WINDOW 3 32 56 VTop 2
SYMATTR InstName R1
SYMATTR Value 4.7k
SYMBOL res -16 208 R0
SYMATTR InstName R2
SYMATTR Value 4.7k
SYMBOL voltage 512 -48 R0
WINDOW 123 0 0 Left 2
WINDOW 39 24 124 Left 2
SYMATTR SpiceLine Rser=0
SYMATTR InstName V1
SYMATTR Value 5.0
SYMBOL voltage -224 -48 R0
WINDOW 123 0 0 Left 2
WINDOW 39 24 124 Left 2
SYMATTR SpiceLine Rser=0
SYMATTR InstName V2
SYMATTR Value 10
SYMBOL Opamps\\OPA170 256 96 R0
SYMATTR InstName U1
TEXT -256 360 Left 2 !.tran 1
