Version 4
SHEET 1 880 680
WIRE -144 -96 -224 -96
<<<<<<< HEAD
WIRE 512 -96 256 -96
WIRE -224 -32 -224 -96
WIRE 512 -32 512 -96
WIRE -224 80 -224 48
WIRE 512 80 512 48
WIRE 432 96 96 96
WIRE 256 128 256 -96
WIRE 96 144 96 96
WIRE 224 144 96 144
WIRE 256 144 256 128
WIRE 432 160 432 96
WIRE 432 160 288 160
WIRE 496 160 432 160
WIRE -144 176 -144 -96
WIRE -112 176 -144 176
WIRE 0 176 -32 176
WIRE 224 176 0 176
WIRE 0 224 0 176
WIRE 256 256 256 192
=======
WIRE 512 -96 192 -96
WIRE -224 -32 -224 -96
WIRE 512 -32 512 -96
WIRE 224 48 112 48
WIRE 352 48 304 48
WIRE -224 80 -224 48
WIRE 512 80 512 48
WIRE 192 112 192 -96
WIRE 112 128 112 48
WIRE 160 128 112 128
WIRE 352 144 352 48
WIRE 352 144 224 144
WIRE 416 144 352 144
WIRE 560 144 496 144
WIRE 672 144 560 144
WIRE 160 160 0 160
WIRE -144 176 -144 -96
WIRE -112 176 -144 176
WIRE 0 176 0 160
WIRE 0 176 -32 176
WIRE 560 176 560 144
WIRE 0 224 0 176
WIRE 192 256 192 176
WIRE 560 288 560 256
>>>>>>> origin/master
WIRE 0 336 0 304
FLAG 0 336 0
FLAG 512 80 0
FLAG -224 80 0
<<<<<<< HEAD
FLAG 256 256 0
=======
FLAG 192 256 0
FLAG 560 288 0
>>>>>>> origin/master
SYMBOL res -16 160 R90
WINDOW 0 0 56 VBottom 2
WINDOW 3 32 56 VTop 2
SYMATTR InstName R1
<<<<<<< HEAD
SYMATTR Value 4.7k
SYMBOL res -16 208 R0
SYMATTR InstName R2
SYMATTR Value 4.7k
=======
SYMATTR Value 9.76k
SYMBOL res -16 208 R0
SYMATTR InstName R2
SYMATTR Value 5.49k
>>>>>>> origin/master
SYMBOL voltage 512 -48 R0
WINDOW 123 0 0 Left 2
WINDOW 39 24 124 Left 2
SYMATTR SpiceLine Rser=0
SYMATTR InstName V1
SYMATTR Value 5
SYMBOL voltage -224 -48 R0
WINDOW 123 0 0 Left 2
WINDOW 39 24 124 Left 2
SYMATTR SpiceLine Rser=0
SYMATTR InstName V2
SYMATTR Value 10
<<<<<<< HEAD
SYMBOL Opamps\\OPA170 256 96 R0
SYMATTR InstName U1
=======
SYMBOL Opamps\\OPA170 192 80 R0
SYMATTR InstName U1
SYMATTR Value OPA170
SYMBOL res 320 32 R90
WINDOW 0 0 56 VBottom 2
WINDOW 3 32 56 VTop 2
SYMATTR InstName R3
SYMATTR Value 49.9
SYMBOL res 512 128 R90
WINDOW 0 0 56 VBottom 2
WINDOW 3 32 56 VTop 2
SYMATTR InstName R4
SYMATTR Value 499
SYMBOL res 576 272 R180
WINDOW 0 36 76 Left 2
WINDOW 3 36 40 Left 2
SYMATTR InstName R5
<<<<<<< HEAD
SYMATTR Value 499
=======
SYMATTR Value 590
>>>>>>> origin/master
>>>>>>> c024d22770237aba7a82f38ffc89d49c6a18281e
TEXT -256 360 Left 2 !.tran 1
TEXT 240 224 Left 2 !.lib OPA170.sub
