Version 4
SHEET 1 880 680
WIRE 48 32 -96 32
WIRE -96 64 -96 32
WIRE 48 80 48 32
WIRE -96 176 -96 144
WIRE 48 208 48 144
WIRE 192 208 48 208
WIRE 192 304 192 288
FLAG -96 176 0
FLAG 192 304 0
SYMBOL schottky 32 80 R0
SYMATTR InstName D1
SYMATTR Value BAT54
SYMATTR Description Diode
SYMATTR Type diode
SYMBOL voltage -96 48 R0
WINDOW 123 0 0 Left 2
WINDOW 39 0 0 Left 2
SYMATTR InstName V1
SYMATTR Value 2.5
SYMBOL res 176 192 R0
SYMATTR InstName R1
SYMATTR Value 1000
TEXT -130 312 Left 2 !.tran 0 2 0 0.1
