Version 4
SHEET 1 880 680
WIRE -32 144 -112 144
WIRE 96 144 0 144
WIRE 192 144 96 144
WIRE 384 144 192 144
WIRE 400 144 384 144
WIRE 384 160 384 144
WIRE -112 256 -112 224
WIRE 96 256 96 208
WIRE 192 256 192 208
WIRE 384 256 384 224
FLAG -112 256 0
FLAG 96 256 0
FLAG 192 256 0
FLAG 384 256 0
SYMBOL voltage -112 128 R0
WINDOW 123 24 72 Left 2
WINDOW 39 0 0 Left 2
WINDOW 3 24 44 Left 2
SYMATTR Value2 AC 0.1
SYMATTR InstName V1
SYMATTR Value ""
SYMBOL polcap 80 144 R0
WINDOW 3 24 56 Left 2
SYMATTR InstName C1
SYMATTR Value 47µ
SYMATTR Description Capacitor
SYMATTR Type cap
SYMATTR SpiceLine V=50 Irms=250m Rser=0.6 Lser=0 mfg="Nichicon" pn="UPG1H470MPH" type="Al electrolytic"
SYMBOL Wurth_Elektronik\\FerriteBead_Z(I) -16 144 R90
WINDOW 0 -16 0 VBottom 2
WINDOW 38 16 0 VTop 2
SYMATTR InstName U1
SYMATTR SpiceModel 74279218
SYMBOL cap 176 144 R0
SYMATTR InstName C2
SYMATTR Value 0.1µ
SYMATTR SpiceLine V=50 Irms=950m Rser=0.0765605 Lser=0 mfg="KEMET" pn="C2220C104K5RAC" type="X7R"
SYMBOL load 368 160 R0
WINDOW 123 0 0 Left 2
WINDOW 39 0 0 Left 2
SYMATTR InstName I1
SYMATTR Value 0.020
TEXT -192 416 Left 2 !.ac lin 20 1 100k
TEXT -336 248 Left 2 !;tran 0 2 0 0.1
