Version 4
SHEET 1 1052 680
WIRE -224 48 -352 48
WIRE 224 96 192 96
WIRE 336 96 224 96
WIRE 480 96 336 96
WIRE 608 96 560 96
WIRE -352 112 -352 48
WIRE -224 112 -224 48
WIRE -192 112 -224 112
WIRE -64 112 -112 112
WIRE 192 112 192 96
WIRE 192 112 128 112
WIRE 608 112 608 96
WIRE 336 128 336 96
WIRE 224 144 224 96
WIRE -64 176 -112 176
WIRE -352 208 -352 192
WIRE -256 208 -352 208
WIRE -112 208 -112 176
WIRE -112 208 -256 208
WIRE 160 208 128 208
WIRE -256 240 -256 208
WIRE 160 256 160 208
WIRE 224 256 224 208
WIRE 224 256 160 256
WIRE 336 256 336 208
WIRE 336 256 224 256
WIRE 448 256 336 256
WIRE 608 256 608 192
WIRE 608 256 448 256
WIRE 448 336 448 256
FLAG 448 336 0
FLAG -256 240 0
SYMBOL res 464 80 M90
WINDOW 0 0 56 VBottom 2
WINDOW 3 32 56 VTop 2
SYMATTR InstName R1
SYMATTR Value 4.7k
SYMBOL res 320 224 M180
WINDOW 0 36 76 Left 2
WINDOW 3 36 40 Left 2
SYMATTR InstName R2
SYMATTR Value 1k
SYMBOL cap 208 144 R0
SYMATTR InstName C1
SYMATTR Value 10n
SYMBOL voltage 608 96 R0
WINDOW 3 24 152 Left 2
WINDOW 123 24 124 Left 2
WINDOW 39 0 0 Left 2
SYMATTR InstName V1
SYMATTR Value 8
SYMBOL voltage -352 96 R0
WINDOW 123 0 0 Left 2
WINDOW 39 0 0 Left 2
SYMATTR InstName V2
SYMATTR Value 3.3
SYMBOL res -96 96 R90
WINDOW 0 0 56 VBottom 2
WINDOW 3 32 56 VTop 2
SYMATTR InstName R3
SYMATTR Value 4.7k
SYMBOL Optos\\CNY17-1 32 176 M0
SYMATTR InstName U1
TEXT -66 360 Left 2 !;tran 0 2 0 0.1
TEXT -386 380 Left 2 !.tran 0 2 0 0.1
